src/cases/Case3/case3_with_inv_load_x2/feeder_outputs/IEEELineCodes.dss
! this file was corrected 9/16/2010 to match the values in Kersting's files



! These line codes are used in the 123-bus circuit

New linecode.1 nphases=3 BaseFreq=60
!!!~ rmatrix = (0.088205 | 0.0312137 0.0901946 | 0.0306264 0.0316143 0.0889665 )
!!!~ xmatrix = (0.20744 | 0.0935314 0.200783 | 0.0760312 0.0855879 0.204877 )
!!!~ cmatrix = (2.90301 | -0.679335 3.15896 | -0.22313 -0.481416 2.8965 )
~ rmatrix = [0.086666667 | 0.029545455 0.088371212 | 0.02907197 0.029924242 0.087405303]
~ xmatrix = [0.204166667 | 0.095018939 0.198522727 | 0.072897727 0.080227273 0.201723485]
~ cmatrix = [2.851710072 | -0.920293787  3.004631862 | -0.350755566  -0.585011253 2.71134756]

New linecode.2 nphases=3 BaseFreq=60
!!!~ rmatrix = (0.0901946 | 0.0316143 0.0889665 | 0.0312137 0.0306264 0.088205 )
!!!~ xmatrix = (0.200783 | 0.0855879 0.204877 | 0.0935314 0.0760312 0.20744 )
!!!~ cmatrix = (3.15896 | -0.481416 2.8965 | -0.679335 -0.22313 2.90301 )
~ rmatrix = [0.088371212 | 0.02992424  0.087405303 | 0.029545455 0.02907197 0.086666667]
~ xmatrix = [0.198522727 | 0.080227273  0.201723485 | 0.095018939 0.072897727 0.204166667]
~ cmatrix = [3.004631862 | -0.585011253 2.71134756 | -0.920293787  -0.350755566  2.851710072]

New linecode.3 nphases=3 BaseFreq=60
!!!~ rmatrix = (0.0889665 | 0.0306264 0.088205 | 0.0316143 0.0312137 0.0901946 )
!!!~ xmatrix = (0.204877 | 0.0760312 0.20744 | 0.0855879 0.0935314 0.200783 )
!!!~ cmatrix = (2.8965 | -0.22313 2.90301 | -0.481416 -0.679335 3.15896 )

~ rmatrix = [0.087405303 | 0.02907197 0.086666667  | 0.029924242 0.029545455 0.088371212]
~ xmatrix = [0.201723485 | 0.072897727 0.204166667 | 0.080227273 0.095018939 0.198522727]
~ cmatrix = [2.71134756  | -0.350755566 2.851710072 | -0.585011253 -0.920293787 3.004631862]

New linecode.4 nphases=3 BaseFreq=60
!!!~ rmatrix = (0.0889665 | 0.0316143 0.0901946 | 0.0306264 0.0312137 0.088205 )
!!!~ xmatrix = (0.204877 | 0.0855879 0.200783 | 0.0760312 0.0935314 0.20744 )
!!!~ cmatrix = (2.8965 | -0.481416 3.15896 | -0.22313 -0.679335 2.90301 )
~ rmatrix = [0.087405303 | 0.029924242 0.088371212 | 0.02907197   0.029545455 0.086666667]
~ xmatrix = [0.201723485 | 0.080227273 0.198522727 | 0.072897727 0.095018939 0.204166667]
~ cmatrix = [2.71134756  | 0.585011253 3.004631862 | -0.350755566 -0.920293787 2.851710072]

New linecode.5 nphases=3 BaseFreq=60
!!!~ rmatrix = (0.0901946 | 0.0312137 0.088205 | 0.0316143 0.0306264 0.0889665 )
!!!~ xmatrix = (0.200783 | 0.0935314 0.20744 | 0.0855879 0.0760312 0.204877 )
!!!~ cmatrix = (3.15896 | -0.679335 2.90301 | -0.481416 -0.22313 2.8965 )

~ rmatrix = [0.088371212  |  0.029545455  0.086666667  |  0.029924242  0.02907197  0.087405303]
~ xmatrix = [0.198522727  |  0.095018939  0.204166667  |  0.080227273  0.072897727  0.201723485]
~ cmatrix = [3.004631862  | -0.920293787  2.851710072  |  -0.585011253  -0.350755566  2.71134756]

New linecode.6 nphases=3 BaseFreq=60
!!!~ rmatrix = (0.088205 | 0.0306264 0.0889665 | 0.0312137 0.0316143 0.0901946 )
!!!~ xmatrix = (0.20744 | 0.0760312 0.204877 | 0.0935314 0.0855879 0.200783 )
!!!~ cmatrix = (2.90301 | -0.22313 2.8965 | -0.679335 -0.481416 3.15896 )
~ rmatrix = [0.086666667 | 0.02907197  0.087405303 | 0.029545455  0.029924242  0.088371212]
~ xmatrix = [0.204166667 | 0.072897727  0.201723485 | 0.095018939  0.080227273  0.198522727]
~ cmatrix = [2.851710072 | -0.350755566  2.71134756 | -0.920293787  -0.585011253  3.004631862]
New linecode.7 nphases=2 BaseFreq=60
!!!~ rmatrix = (0.088205 | 0.0306264 0.0889665 )
!!!~ xmatrix = (0.20744 | 0.0760312 0.204877 )
!!!~ cmatrix = (2.75692 | -0.326659 2.82313 )
~ rmatrix = [0.086666667 | 0.02907197  0.087405303]
~ xmatrix = [0.204166667 | 0.072897727  0.201723485]
~ cmatrix = [2.569829596 | -0.52995137  2.597460011]
New linecode.8 nphases=2 BaseFreq=60
!!!~ rmatrix = (0.088205 | 0.0306264 0.0889665 )
!!!~ xmatrix = (0.20744 | 0.0760312 0.204877 )
!!!~ cmatrix = (2.75692 | -0.326659 2.82313 )
~ rmatrix = [0.086666667 | 0.02907197  0.087405303]
~ xmatrix = [0.204166667 | 0.072897727  0.201723485]
~ cmatrix = [2.569829596 | -0.52995137  2.597460011]
New linecode.9 nphases=1 BaseFreq=60
!!!~ rmatrix = (0.254428 )
!!!~ xmatrix = (0.259546 )
!!!~ cmatrix = (2.50575 )
~ rmatrix = [0.251742424]
~ xmatrix = [0.255208333]
~ cmatrix = [2.270366128]
New linecode.10 nphases=1 BaseFreq=60
!!!~ rmatrix = (0.254428 )
!!!~ xmatrix = (0.259546 )
!!!~ cmatrix = (2.50575 )
~ rmatrix = [0.251742424]
~ xmatrix = [0.255208333]
~ cmatrix = [2.270366128]
New linecode.11 nphases=1 BaseFreq=60
!!!~ rmatrix = (0.254428 )
!!!~ xmatrix = (0.259546 )
!!!~ cmatrix = (2.50575 )
~ rmatrix = [0.251742424]
~ xmatrix = [0.255208333]
~ cmatrix = [2.270366128]
New linecode.12 nphases=3 BaseFreq=60
!!!~ rmatrix = (0.291814 | 0.101656 0.294012 | 0.096494 0.101656 0.291814 )
!!!~ xmatrix = (0.141848 | 0.0517936 0.13483 | 0.0401881 0.0517936 0.141848 )
!!!~ cmatrix = (53.4924 | 0 53.4924 | 0 0 53.4924 )
~ rmatrix = [0.288049242 | 0.09844697  0.29032197 | 0.093257576  0.09844697  0.288049242]
~ xmatrix = [0.142443182 | 0.052556818  0.135643939 | 0.040852273  0.052556818  0.142443182]
~ cmatrix = [33.77150149 | 0  33.77150149 | 0  0  33.77150149]

! These line codes are used in the 34-node test feeder

New linecode.300 nphases=3 basefreq=60   ! ohms per 1000ft  Corrected 11/30/05
~ rmatrix = [0.253181818   |  0.039791667     0.250719697  |   0.040340909      0.039128788     0.251780303]  !ABC ORDER
~ xmatrix = [0.252708333   |  0.109450758     0.256988636  |   0.094981061      0.086950758     0.255132576]
~ CMATRIX = [2.680150309   | -0.769281006     2.5610381    |  -0.499507676     -0.312072984     2.455590387]
New linecode.301 nphases=3 basefreq=60
~ rmatrix = [0.365530303   |   0.04407197      0.36282197   |   0.04467803       0.043333333     0.363996212]
~ xmatrix = [0.267329545   |   0.122007576     0.270473485  |   0.107784091      0.099204545     0.269109848] 
~ cmatrix = [2.572492163   |  -0.72160598      2.464381882  |  -0.472329395     -0.298961096     2.368881119]
New linecode.302 nphases=1 basefreq=60
~ rmatrix = (0.530208 )
~ xmatrix = (0.281345 )
~ cmatrix = (2.12257 )
New linecode.303 nphases=1 basefreq=60
~ rmatrix = (0.530208 )
~ xmatrix = (0.281345 )
~ cmatrix = (2.12257 )
New linecode.304 nphases=1 basefreq=60
~ rmatrix = (0.363958 )
~ xmatrix = (0.269167 )
~ cmatrix = (2.1922 )


! This may be for the 4-node test feeder, but is not actually referenced.
!  instead, the 4Bus*.dss files all use the wiredata and linegeometry inputs
!  to calculate these matrices from physical data.

New linecode.400 nphases=3 BaseFreq=60
~ rmatrix = (0.088205 | 0.0312137 0.0901946 | 0.0306264 0.0316143 0.0889665 )
~ xmatrix = (0.20744 | 0.0935314 0.200783 | 0.0760312 0.0855879 0.204877 )
~ cmatrix = (2.90301 | -0.679335 3.15896 | -0.22313 -0.481416 2.8965 )

! LODGE upgrade linecodes (Kersting App A / get_line_params)
New Linecode.3P_OH_AL_ACSR_477_3 units=km nphases=3 Faultrate=0.1 Rmatrix=(0.1342165111163582 0.03355412777908955 0.03355412777908955 | 0.03355412777908955 0.1342165111163582 0.03355412777908955 | 0.03355412777908955 0.03355412777908955 0.1342165111163582 ) Xmatrix=(0.1295934565101221 0.044709742495992126 0.044709742495992126 | 0.044709742495992126 0.1295934565101221 0.044709742495992126 | 0.044709742495992126 0.044709742495992126 0.1295934565101221 ) Cmatrix=(3.474583366666666 -1.1466125109999998 -1.1466125109999998 | -1.1466125109999998 3.474583366666666 -1.1466125109999998 | -1.1466125109999998 -1.1466125109999998 3.474583366666666 ) normamps=670

New Linecode.3P_OH_AL_ACSR_3/0_3 units=km nphases=3 Faultrate=0.1 Rmatrix=(0.4492524885978102 0.11231312214945255 0.11231312214945255 | 0.11231312214945255 0.4492524885978102 0.11231312214945255 | 0.11231312214945255 0.11231312214945255 0.4492524885978102 ) Xmatrix=(0.1377955739619968 0.04753947301688889 0.04753947301688889 | 0.04753947301688889 0.1377955739619968 0.04753947301688889 | 0.04753947301688889 0.04753947301688889 0.1377955739619968 ) Cmatrix=(3.474583366666666 -1.1466125109999998 -1.1466125109999998 | -1.1466125109999998 3.474583366666666 -1.1466125109999998 | -1.1466125109999998 -1.1466125109999998 3.474583366666666 ) normamps=300

New Linecode.3P_OH_AL_ACSR_#2_3 units=km nphases=3 Faultrate=0.1 Rmatrix=(1.2862415648651 0.321560391216275 0.321560391216275 | 0.321560391216275 1.2862415648651 0.321560391216275 | 0.321560391216275 0.321560391216275 1.2862415648651 ) Xmatrix=(0.147638115003666 0.050935149676264765 0.050935149676264765 | 0.050935149676264765 0.147638115003666 0.050935149676264765 | 0.050935149676264765 0.050935149676264765 0.147638115003666 ) Cmatrix=(3.474583366666666 -1.1466125109999998 -1.1466125109999998 | -1.1466125109999998 3.474583366666666 -1.1466125109999998 | -1.1466125109999998 -1.1466125109999998 3.474583366666666 ) normamps=180

New Linecode.3P_OH_AL_ACSR_1/0_3 units=km nphases=3 Faultrate=0.1 Rmatrix=(0.6959374650477836 0.1739843662619459 0.1739843662619459 | 0.1739843662619459 0.6959374650477836 0.1739843662619459 | 0.1739843662619459 0.1739843662619459 0.6959374650477836 ) Xmatrix=(0.1443572680104888 0.049803257463618626 0.049803257463618626 | 0.049803257463618626 0.1443572680104888 0.049803257463618626 | 0.049803257463618626 0.049803257463618626 0.1443572680104888 ) Cmatrix=(3.474583366666666 -1.1466125109999998 -1.1466125109999998 | -1.1466125109999998 3.474583366666666 -1.1466125109999998 | -1.1466125109999998 -1.1466125109999998 3.474583366666666 ) normamps=230

New Linecode.3P_OH_AL_ACSR_4/0_Penguin_3 units=km nphases=3 Faultrate=0.1 Rmatrix=(0.3678526600966856 0.0919631650241714 0.0919631650241714 | 0.0919631650241714 0.3678526600966856 0.0919631650241714 | 0.0919631650241714 0.0919631650241714 0.3678526600966856 ) Xmatrix=(0.1345147269688195 0.046407580804242725 0.046407580804242725 | 0.046407580804242725 0.1345147269688195 0.046407580804242725 | 0.046407580804242725 0.046407580804242725 0.1345147269688195 ) Cmatrix=(3.474583366666666 -1.1466125109999998 -1.1466125109999998 | -1.1466125109999998 3.474583366666666 -1.1466125109999998 | -1.1466125109999998 -1.1466125109999998 3.474583366666666 ) normamps=340

! These are for the 13-node test feeder

New linecode.601 nphases=3 BaseFreq=60
!!!~ rmatrix = (0.0674673 | 0.0312137 0.0654777 | 0.0316143 0.0306264 0.0662392 )
!!!~ xmatrix = (0.195204  | 0.0935314 0.201861 | 0.0855879 0.0760312 0.199298 )
!!!~ cmatrix = (3.32591   | -0.743055 3.04217 | -0.525237 -0.238111 3.03116 )
~ rmatrix = [0.065625    | 0.029545455  0.063920455  | 0.029924242  0.02907197  0.064659091]
~ xmatrix = [0.192784091 | 0.095018939  0.19844697   | 0.080227273  0.072897727  0.195984848]
~ cmatrix = [3.164838036 | -1.002632425  2.993981593 | -0.632736516  -0.372608713  2.832670203]
New linecode.602 nphases=3 BaseFreq=60
!!!~ rmatrix = (0.144361 | 0.0316143 0.143133 | 0.0312137 0.0306264 0.142372 )
!!!~ xmatrix = (0.226028 | 0.0855879 0.230122 | 0.0935314 0.0760312 0.232686 )
!!!~ cmatrix = (3.01091  | -0.443561 2.77543  | -0.624494 -0.209615 2.77847 )
~ rmatrix = [0.142537879 | 0.029924242  0.14157197   | 0.029545455  0.02907197  0.140833333]
~ xmatrix = [0.22375     | 0.080227273  0.226950758  | 0.095018939  0.072897727  0.229393939]
~ cmatrix = [2.863013423 | -0.543414918  2.602031589 | -0.8492585  -0.330962141  2.725162768]
New linecode.603 nphases=2 BaseFreq=60
!!!~ rmatrix = (0.254472 | 0.0417943 0.253371 )
!!!~ xmatrix = (0.259467 | 0.0912376 0.261431 )
!!!~ cmatrix = (2.54676  | -0.28882 2.49502 )
~ rmatrix = [0.251780303 | 0.039128788  0.250719697]
~ xmatrix = [0.255132576 | 0.086950758  0.256988636]
~ cmatrix = [2.366017603 | -0.452083836  2.343963508]
New linecode.604 nphases=2 BaseFreq=60
!!!~ rmatrix = (0.253371 | 0.0417943 0.254472 )
!!!~ xmatrix = (0.261431 | 0.0912376 0.259467 )
!!!~ cmatrix = (2.49502 | -0.28882 2.54676 )
~ rmatrix = [0.250719697 | 0.039128788   0.251780303]
~ xmatrix = [0.256988636  | 0.086950758  0.255132576]
~ cmatrix = [2.343963508 | -0.452083836 2.366017603]
New linecode.605 nphases=1 BaseFreq=60
!!!~ rmatrix = (0.254428 )
!!!~ xmatrix = (0.259546 )
!!!~ cmatrix = (2.50575 )
~ rmatrix = [0.251742424]
~ xmatrix = [0.255208333]
~ cmatrix = [2.270366128]
New linecode.606 nphases=3 BaseFreq=60
!!!~ rmatrix = (0.152193 | 0.0611362 0.15035 | 0.0546992 0.0611362 0.152193 )
!!!~ xmatrix = (0.0825685 | 0.00548281 0.0745027 | -0.00339824 0.00548281 0.0825685 )
!!!~ cmatrix = (72.7203 | 0 72.7203 | 0 0 72.7203 )
~ rmatrix = [0.151174242 | 0.060454545  0.149450758 | 0.053958333  0.060454545  0.151174242]
~ xmatrix = [0.084526515 | 0.006212121  0.076534091 | -0.002708333  0.006212121  0.084526515]
~ cmatrix = [48.67459408 | 0  48.67459408 | 0  0  48.67459408]
New linecode.607 nphases=1 BaseFreq=60
!!!~ rmatrix = (0.255799 )
!!!~ xmatrix = (0.092284 )
!!!~ cmatrix = (50.7067 )
~ rmatrix = [0.254261364]
~ xmatrix = [0.097045455]
~ cmatrix = [44.70661522]

! These are for the 37-node test feeder, all underground

New linecode.721 nphases=3 BaseFreq=60
!!!~ rmatrix = (0.0554906 | 0.0127467 0.0501597 | 0.00640446 0.0127467 0.0554906 )
!!!~ xmatrix = (0.0372331 | -0.00704588 0.0358645 | -0.00796424 -0.00704588 0.0372331 )
!!!~ cmatrix = (124.851 | 0 124.851 | 0 0 124.851 )
~ rmatrix = [0.055416667 | 0.012746212  0.050113636  | 0.006382576  0.012746212  0.055416667]
~ xmatrix = [0.037367424 | -0.006969697  0.035984848 | -0.007897727  -0.006969697  0.037367424]
~ cmatrix = [80.27484728 | 0  80.27484728            | 0  0  80.27484728]
New linecode.722 nphases=3 BaseFreq=60
!!!~ rmatrix = (0.0902251 | 0.0309584 0.0851482 | 0.0234946 0.0309584 0.0902251 )
!!!~ xmatrix = (0.055991 | -0.00646552 0.0504025 | -0.0117669 -0.00646552 0.055991 )
!!!~ cmatrix = (93.4896 | 0 93.4896 | 0 0 93.4896 )
~ rmatrix = [0.089981061 | 0.030852273  0.085        | 0.023371212  0.030852273  0.089981061]
~ xmatrix = [0.056306818 | -0.006174242  0.050719697 | -0.011496212  -0.006174242  0.056306818]
~ cmatrix = [64.2184109 | 0  64.2184109              | 0  0  64.2184109]
New linecode.723 nphases=3 BaseFreq=60
!!!~ rmatrix = (0.247572 | 0.0947678 0.249104 | 0.0893782 0.0947678 0.247572 )
!!!~ xmatrix = (0.126339 | 0.0390337 0.118816 | 0.0279344 0.0390337 0.126339 )
!!!~ cmatrix = (58.108 | 0 58.108 | 0 0 58.108 )
~ rmatrix = [0.245 | 0.092253788  0.246628788 | 0.086837121  0.092253788  0.245]
~ xmatrix = [0.127140152 | 0.039981061  0.119810606 | 0.028806818  0.039981061  0.127140152]
~ cmatrix = [37.5977112 | 0  37.5977112 | 0  0  37.5977112]
New linecode.724 nphases=3 BaseFreq=60
!!!~ rmatrix = (0.399883 | 0.101765 0.402011 | 0.0965199 0.101765 0.399883 )
!!!~ xmatrix = (0.146325 | 0.0510963 0.139305 | 0.0395402 0.0510963 0.146325 )
!!!~ cmatrix = (46.9685 | 0 46.9685 | 0 0 46.9685 )
~ rmatrix = [0.396818182 | 0.098560606  0.399015152 | 0.093295455  0.098560606  0.396818182]
~ xmatrix = [0.146931818 | 0.051856061  0.140113636 | 0.040208333  0.051856061  0.146931818]
~ cmatrix = [30.26701029 | 0  30.26701029 | 0  0  30.26701029]

! LODGE upgrade linecodes (Kersting App A / get_line_params)
New Linecode.3P_OH_AL_OTHER_3 units=km nphases=3 Faultrate=0.1 Rmatrix=(0.0621372736649806 0.01553431841624515 0.01553431841624515 | 0.01553431841624515 0.0621372736649806 0.01553431841624515 | 0.01553431841624515 0.01553431841624515 0.0621372736649806 ) Xmatrix=(0.099419637863969 0.034299775063069304 0.034299775063069304 | 0.034299775063069304 0.099419637863969 0.034299775063069304 | 0.034299775063069304 0.034299775063069304 0.099419637863969 ) Cmatrix=(4.621195877666669 -1.524994639630001 -1.524994639630001 | -1.524994639630001 4.621195877666669 -1.524994639630001 | -1.524994639630001 -1.524994639630001 4.621195877666669 ) normamps=3000

New Linecode.3P_OH_AL_ACSR_795_3 units=km nphases=3 Faultrate=0.1 Rmatrix=(0.0708364919780779 0.017709122994519474 0.017709122994519474 | 0.017709122994519474 0.0708364919780779 0.017709122994519474 | 0.017709122994519474 0.017709122994519474 0.0708364919780779 ) Xmatrix=(0.1267600382765605 0.043732213205413366 0.043732213205413366 | 0.043732213205413366 0.1267600382765605 0.043732213205413366 | 0.043732213205413366 0.043732213205413366 0.1267600382765605 ) Cmatrix=(4.621195877666669 -1.524994639630001 -1.524994639630001 | -1.524994639630001 4.621195877666669 -1.524994639630001 | -1.524994639630001 -1.524994639630001 4.621195877666669 ) normamps=910

New Linecode.3P_OH_AL_ACSR_336_4_3 units=km nphases=3 Faultrate=0.1 Rmatrix=(0.1901400574148408 0.0475350143537102 0.0475350143537102 | 0.0475350143537102 0.1901400574148408 0.0475350143537102 | 0.0475350143537102 0.0475350143537102 0.1901400574148408 ) Xmatrix=(0.1312338799756422 0.04527568859159656 0.04527568859159656 | 0.04527568859159656 0.1312338799756422 0.04527568859159656 | 0.04527568859159656 0.04527568859159656 0.1312338799756422 ) Cmatrix=(3.474583366666666 -1.1466125109999998 -1.1466125109999998 | -1.1466125109999998 3.474583366666666 -1.1466125109999998 | -1.1466125109999998 -1.1466125109999998 3.474583366666666 ) normamps=530

New Linecode.3P_OH_AL_ACSR_4/0_Penguin_3 units=km nphases=3 Faultrate=0.1 Rmatrix=(0.3678526600966856 0.0919631650241714 0.0919631650241714 | 0.0919631650241714 0.3678526600966856 0.0919631650241714 | 0.0919631650241714 0.0919631650241714 0.3678526600966856 ) Xmatrix=(0.1345147269688195 0.046407580804242725 0.046407580804242725 | 0.046407580804242725 0.1345147269688195 0.046407580804242725 | 0.046407580804242725 0.046407580804242725 0.1345147269688195 ) Cmatrix=(4.621195877666669 -1.524994639630001 -1.524994639630001 | -1.524994639630001 4.621195877666669 -1.524994639630001 | -1.524994639630001 -1.524994639630001 4.621195877666669 ) normamps=340

New Linecode.3P_OH_AL_ACSR_477_3 units=km nphases=3 Faultrate=0.1 Rmatrix=(0.1342165111163582 0.03355412777908955 0.03355412777908955 | 0.03355412777908955 0.1342165111163582 0.03355412777908955 | 0.03355412777908955 0.03355412777908955 0.1342165111163582 ) Xmatrix=(0.1295934565101221 0.044709742495992126 0.044709742495992126 | 0.044709742495992126 0.1295934565101221 0.044709742495992126 | 0.044709742495992126 0.044709742495992126 0.1295934565101221 ) Cmatrix=(4.621195877666669 -1.524994639630001 -1.524994639630001 | -1.524994639630001 4.621195877666669 -1.524994639630001 | -1.524994639630001 -1.524994639630001 4.621195877666669 ) normamps=670

